test/resources/V1_14/skippedExtensions.xml
<?xml version="1.0" encoding="UTF-8"?>
<iidm:network xmlns:iidm="http://www.powsybl.org/schema/iidm/1_14" xmlns:bar="http://www.itesla_project.eu/schema/iidm/ext/loadbar/1_0" xmlns:mockns="http://www.powsybl.org/schema/iidm/ext/terminal_mock_no_serialize/1_12" xmlns:foo="http://www.itesla_project.eu/schema/iidm/ext/loadfoo/1_0" id="test" caseDate="2013-01-15T18:45:00.000+01:00" forecastDistance="0" sourceFormat="test" minimumValidationLevel="STEADY_STATE_HYPOTHESIS">
    <iidm:substation id="substation" country="FR" tso="RTE" geographicalTags="B">
        <iidm:voltageLevel id="VLLOAD" nominalV="150.0" topologyKind="BUS_BREAKER">
            <iidm:busBreakerTopology>
                <iidm:bus id="BLOAD"/>
            </iidm:busBreakerTopology>
            <iidm:load id="LOAD" loadType="UNDEFINED" p0="600.0" q0="200.0" bus="BLOAD" connectableBus="BLOAD">
                <iidm:zipModel c0p="0.3" c1p="0.5" c2p="0.2" c0q="0.1" c1q="0.2" c2q="0.7"/>
            </iidm:load>
        </iidm:voltageLevel>
    </iidm:substation>
    <iidm:extension id="LOAD">
        <bar:loadBar/>
        <mockns:terminalMockNoSerialize>
            <mockns:terminal id="LOAD"/>
        </mockns:terminalMockNoSerialize>
        <foo:loadFoo/>
    </iidm:extension>
</iidm:network>
